NIGLOBAL = 240
NJGLOBAL = 560
DT = 600.
#override HMIX_UV_SFC_PROP = 5.0
#override INTERNAL_WAVE_SPEED_BETTER_EST = False
#override USE_ZB2020 = False
#override SMAG_BI_CONST = 0.2

#override LAPLACIAN = True
#override BIHARMONIC = True
#override SMAGORINSKY_AH = True
#override USE_MEKE = True
#override MEKE_VISCOSITY_COEFF_KU = -0.1
#override RES_SCALE_MEKE_VISC = False
#override MEKE_ADVECTION_FACTOR = 1.0
#override MEKE_BACKSCAT_RO_POW = 0.0
#override MEKE_USCALE = 0.1
#override MEKE_GMCOEFF = -1.0
#override MEKE_KHCOEFF = 0.15
#override MEKE_FRCOEFF = 1.0
#override MEKE_KHMEKE_FAC = 1.0
#override MEKE_KH = 0.0
#override MEKE_CD_SCALE = 1.0
#override MEKE_CB = 0.0
#override MEKE_CT = 0.0
#override MEKE_MIN_LSCALE = True
#override MEKE_ALPHA_RHINES = 1.0
#override MEKE_ALPHA_GRID = 1.0
#override MEKE_COLD_START = True
#override MEKE_TOPOGRAPHIC_BETA = 1.0
#override KH = 0.0
#override KH_VEL_SCALE = 0.0
#override SMAGORINSKY_KH = False
#override BOUND_KH = False
#override BETTER_BOUND_KH = False

